---- qbsp / TyrUtils ericw-v0.15.9 ----
Input file: punch4-compile.map
Output file: punch4.bsp

---- LoadMapFile ----
*** WARNING 06: No info_player_deathmatch entities in level
        11207 faces
         1865 brushes
          705 entities
           53 unique texnames
         1802 texinfo

Opened WAD: C:/Quake/wad/NATURE.wad
Opened WAD: C:/Quake/wad/clock3.wad
Opened WAD: C:/Quake/wad/Q.wad
Opened WAD: C:/Quake/wad/punch2.wad
Processing hull 0...
---- Brush_LoadEntity ----
         1193 brushes
          484 detail
---- CSGFaces ----
         9855 brushfaces
         6829 csgfaces
         5200 mergedfaces
---- SolidBSP ----
         7012 split nodes
         3049 solid leafs
         3735 empty leafs
          229 water leafs
        26871 leaffaces
        25358 nodefaces
---- Portalize ----
         3964 vis leafs
         3964 vis clusters
        11176 vis portals
---- FillOutside ----
         1719 outleafs
---- MergeAll ----
         4184 mergefaces
---- SolidBSP ----
         2522 split nodes
         1349 solid leafs
         1104 empty leafs
           70 water leafs
        15859 leaffaces
        14323 nodefaces
---- Portalize ----
         1174 vis leafs
          675 vis clusters
         1753 vis portals
---- Tjunc ----
         9704 world edges
        46607 edge points
        13212 edges added by tjunctions
            0 faces added by tjunctions
---- MakeFaceEdges ----
---- GrowRegions ----
Processing hull 1...
Processing hull 2...
*** WARNING 16: Texture __TB_empty not found
---- WriteBSPFile ----
         2457 planes            49140
        22148 vertexes         265776
         3478 nodes             83472
         1802 texinfo           72080
        15798 faces            315960
         6188 clipnodes         49504
         2125 leafs             59500
        17334 marksurfaces      34668
        76854 surfedges        307416
        38562 edges            154248
           83 textures        2215684
              lightdata             0
              visdata               0
              entdata           63957

1.355 seconds elapsed
Peak memory usage: 58161858 (55.5M)
